PDEW 2014 5 30 1 20 17.5 25.00 97.85 10.0 0.0 5.9 MYANMAR-CHINA BORDER REG
event_name:        C201405300120A
t0(s):             +0.00000000E+00
tau(s):            +1.35135135E+00
x(m):              -7.93833843E+05
y(m):              +5.72085220E+06
z(m):              +2.66664346E+06
Mxx(N*m):          +4.24454944E+17
Myy(N*m):          -1.76285423E+17
Mzz(N*m):          -2.47869521E+17
Mxy(N*m):          -4.66821803E+17
Mxz(N*m):          +6.73237363E+17
Myz(N*m):          +9.61213698E+16
