PDEW 2012 06 24 07 59 35.9245 27.77 100.78 10.0 5.5 5.5 YUNNAN, CHINA
event name:        C201206240759A
t0(s):             +0.00000000E+00
tau(s):            +0.00000000E+00
x(m):              -1.04797318E+06
y(m):              +5.55019568E+06
z(m):              +2.95123672E+06
Mxx(N*m):          +2.29184366E+17
Myy(N*m):          -1.25747328E+17
Mzz(N*m):          -1.03436972E+17
Mxy(N*m):          +5.10022664E+16
Mxz(N*m):          -9.47442893E+16
Myz(N*m):          -1.59817998E+17
