PDEW 2011 2 4 13 53 48.9 24.64 94.68 66.0 6.5 6.3 MYANMAR-INDIA BORDER REG
event name:        C201102041353A
t0(s):             +0.00000000E+00
tau(s):            +2.02702703E+00
x(m):              -4.66276176E+05
y(m):              +5.69577270E+06
z(m):              +2.58189017E+06
Mxx(N*m):          +7.65807970E+24
Myy(N*m):          +1.18659849E+25
Mzz(N*m):          -1.95340646E+25
Mxy(N*m):          +6.17268605E+24
Mxz(N*m):          +1.76236292E+25
Myz(N*m):          +1.80406918E+25
